Version 4
SHEET 1 2028 856
WIRE 1056 -144 1056 -176
WIRE 848 -112 736 -112
WIRE 736 -64 736 -112
WIRE 752 -64 736 -64
WIRE 416 -48 368 -48
WIRE 576 -48 496 -48
WIRE 848 -48 848 -112
WIRE 848 -48 816 -48
WIRE 1056 -48 1056 -64
WIRE 1056 -48 848 -48
WIRE 672 -32 672 -48
WIRE 752 -32 672 -32
WIRE 672 -16 672 -32
WIRE 256 32 -240 32
WIRE 368 32 368 -48
WIRE 368 32 336 32
WIRE 368 80 368 32
WIRE 416 80 368 80
WIRE 576 96 576 -48
WIRE 576 96 480 96
WIRE 672 96 576 96
WIRE 416 112 0 112
WIRE 672 128 672 96
WIRE -240 144 -240 32
WIRE 896 144 784 144
WIRE 0 160 0 112
WIRE 784 192 784 144
WIRE 800 192 784 192
WIRE 896 208 896 144
WIRE 896 208 864 208
WIRE 1104 208 896 208
WIRE 672 224 672 208
WIRE 800 224 672 224
WIRE 672 240 672 224
WIRE 1104 240 1104 208
WIRE 0 288 0 240
WIRE 672 336 672 320
WIRE 800 336 672 336
WIRE 896 352 864 352
WIRE 1104 352 1104 320
WIRE 1104 352 896 352
WIRE 800 368 784 368
WIRE 832 400 832 384
WIRE 784 432 784 368
WIRE 896 432 896 352
WIRE 896 432 784 432
FLAG 0 288 0
FLAG -240 224 0
FLAG -16 528 0
FLAG 128 448 0
FLAG -16 448 5V
FLAG 128 528 -5V
FLAG 448 64 5V
FLAG 448 128 -5V
FLAG 672 416 0
FLAG 832 240 -5V
FLAG 832 176 5V
FLAG 144 -160 5V
FLAG 144 0 -5V
FLAG 832 320 -5V
FLAG 832 400 5V
FLAG 672 -128 0
FLAG 784 -16 -5V
FLAG 784 -80 5V
FLAG 1056 -176 0
SYMBOL Misc\\signal 0 144 R0
WINDOW 123 24 132 Left 2
WINDOW 39 0 0 Left 0
SYMATTR Value2 AC 5
SYMATTR InstName Salida_DAC
SYMATTR Value PWL file=C:\Users\gonza\Downloads\asd.txt
SYMBOL voltage -240 128 R0
WINDOW 123 0 0 Left 0
WINDOW 39 0 0 Left 0
SYMATTR InstName Vref
SYMATTR Value 5
SYMBOL Opamps\\AD820 448 32 R0
SYMATTR InstName U1
SYMBOL res 240 48 R270
WINDOW 0 32 56 VTop 2
WINDOW 3 0 56 VBottom 2
SYMATTR InstName R2
SYMATTR Value 10k
SYMBOL res 512 -64 R90
WINDOW 0 0 56 VBottom 2
WINDOW 3 32 56 VTop 2
SYMATTR InstName R4
SYMATTR Value 10k
SYMBOL voltage -16 432 R0
WINDOW 123 0 0 Left 0
WINDOW 39 0 0 Left 0
SYMATTR InstName V1
SYMATTR Value 5
SYMBOL voltage 128 432 R0
WINDOW 123 0 0 Left 0
WINDOW 39 0 0 Left 0
SYMATTR InstName V4
SYMATTR Value 5
SYMBOL res 656 112 R0
SYMATTR InstName R3
SYMATTR Value 500k
SYMBOL res 656 224 R0
SYMATTR InstName R5
SYMATTR Value 10
SYMBOL Opamps\\AD820 832 144 R0
SYMATTR InstName U2
SYMBOL BandPassFilter 144 -80 R0
SYMATTR InstName X1
SYMBOL res 1088 224 R0
SYMATTR InstName R1
SYMATTR Value 5Meg
SYMBOL res 656 320 R0
SYMATTR InstName R6
SYMATTR Value 500k
SYMBOL Opamps\\AD820 832 416 M180
SYMATTR InstName U3
SYMBOL res 656 -32 R0
SYMATTR InstName R7
SYMATTR Value 1Meg
SYMBOL res 656 -144 R0
SYMATTR InstName R8
SYMATTR Value 10
SYMBOL Opamps\\AD820 784 -112 R0
SYMATTR InstName U4
SYMBOL res 1040 -160 R0
SYMATTR InstName R9
SYMATTR Value 5Meg
TEXT -376 -120 Left 2 ;.ac dec 1000 0.01 1k
TEXT -336 288 Left 2 ;Regulador
TEXT -80 384 Left 2 ;DAC AD5308
TEXT 232 208 Left 2 ;Rail to rail
TEXT 720 112 Left 2 ;Atenuador
TEXT -376 -168 Left 2 ;.noise V(Vout) Salida_DAC dec 1000 0.01 1k
TEXT -376 0 Left 2 !.tran 9
RECTANGLE Normal -144 272 -336 112 2
RECTANGLE Normal 208 368 -80 96 2
RECTANGLE Normal 608 192 224 -112 2
RECTANGLE Normal 1072 448 624 128 2
