Version 4
SHEET 1 880 680
WIRE 32 -128 -240 -128
WIRE 32 -96 32 -128
WIRE 304 -16 32 -16
WIRE 208 32 16 32
WIRE 304 32 304 -16
WIRE 640 32 304 32
WIRE 384 64 384 -16
WIRE 304 80 304 32
WIRE 352 80 304 80
WIRE 640 96 640 32
WIRE 640 96 416 96
WIRE 352 112 208 112
WIRE 640 112 640 96
WIRE -240 144 -240 -128
WIRE 16 144 16 32
WIRE 384 176 384 128
WIRE 16 272 16 224
FLAG 16 272 0
FLAG -240 224 0
FLAG 384 256 0
FLAG 384 -96 0
FLAG 640 192 0
FLAG 208 192 0
SYMBOL Misc\\signal 16 128 R0
WINDOW 123 0 0 Left 0
WINDOW 39 0 0 Left 0
SYMATTR InstName Salida_DAC
SYMATTR Value SINE(2.5 2.5 1K)
SYMBOL voltage -240 128 R0
WINDOW 123 0 0 Left 0
WINDOW 39 0 0 Left 0
SYMATTR InstName Vref
SYMATTR Value 5
SYMBOL Opamps\\AD820 384 32 R0
SYMATTR InstName U1
SYMBOL voltage 384 272 R180
WINDOW 123 0 0 Left 0
WINDOW 39 0 0 Left 0
SYMATTR InstName V2
SYMATTR Value 5
SYMBOL voltage 384 0 R180
WINDOW 123 0 0 Left 0
WINDOW 39 0 0 Left 0
SYMATTR InstName V3
SYMATTR Value 5
SYMBOL res 624 96 R0
SYMATTR InstName RL
SYMATTR Value 1Meg
SYMBOL res 192 16 R0
SYMATTR InstName R1
SYMATTR Value 10k
SYMBOL res 192 96 R0
SYMATTR InstName R3
SYMATTR Value 1k
SYMBOL res 16 -112 R0
SYMATTR InstName R2
SYMATTR Value 10k
TEXT -18 296 Left 2 !.tran 5m
