Version 4
SHEET 1 1784 700
WIRE 416 -48 368 -48
WIRE 576 -48 496 -48
WIRE 256 32 -240 32
WIRE 368 32 368 -48
WIRE 368 32 336 32
WIRE 368 80 368 32
WIRE 416 80 368 80
WIRE 576 96 576 -48
WIRE 576 96 480 96
WIRE 720 96 576 96
WIRE 1040 96 800 96
WIRE 416 112 0 112
WIRE 720 128 720 96
WIRE -240 144 -240 32
WIRE 0 160 0 112
WIRE 800 192 800 96
WIRE 848 192 800 192
WIRE 1040 208 1040 96
WIRE 1040 208 912 208
WIRE 1232 208 1040 208
WIRE 1424 208 1328 208
WIRE 720 224 720 208
WIRE 848 224 720 224
WIRE 720 240 720 224
WIRE 0 288 0 240
WIRE 1424 304 1424 288
WIRE 720 352 720 320
FLAG 0 288 0
FLAG -240 224 0
FLAG 560 560 0
FLAG 704 480 0
FLAG 560 480 5V
FLAG 704 560 -5V
FLAG 448 64 5V
FLAG 448 128 -5V
FLAG 720 352 0
FLAG 880 240 -5V
FLAG 880 176 5V
FLAG 1424 304 0
FLAG 1280 128 5V
FLAG 1280 288 -5V
FLAG 1424 208 Vout
SYMBOL Misc\\signal 0 144 R0
WINDOW 123 24 132 Left 2
WINDOW 39 0 0 Left 0
SYMATTR Value2 AC 5
SYMATTR InstName Salida_DAC
SYMATTR Value PWL file=C:\Users\gonza\Downloads\asd.txt
SYMBOL voltage -240 128 R0
WINDOW 123 0 0 Left 0
WINDOW 39 0 0 Left 0
SYMATTR InstName Vref
SYMATTR Value 5
SYMBOL Opamps\\AD820 448 32 R0
SYMATTR InstName U1
SYMBOL res 240 48 R270
WINDOW 0 32 56 VTop 2
WINDOW 3 0 56 VBottom 2
SYMATTR InstName R2
SYMATTR Value 10k
SYMBOL res 512 -64 R90
WINDOW 0 0 56 VBottom 2
WINDOW 3 32 56 VTop 2
SYMATTR InstName R4
SYMATTR Value 10k
SYMBOL voltage 560 464 R0
WINDOW 123 0 0 Left 0
WINDOW 39 0 0 Left 0
SYMATTR InstName V1
SYMATTR Value 6
SYMBOL voltage 704 464 R0
WINDOW 123 0 0 Left 0
WINDOW 39 0 0 Left 0
SYMATTR InstName V4
SYMATTR Value 6
SYMBOL res 704 112 R0
SYMATTR InstName R3
SYMATTR Value 1Meg
SYMBOL res 704 224 R0
SYMATTR InstName R5
SYMATTR Value 10
SYMBOL Opamps\\AD820 880 144 R0
SYMATTR InstName U2
SYMBOL BandPassFilter 1280 208 R0
SYMATTR InstName X1
SYMBOL res 1408 192 R0
SYMATTR InstName R1
SYMATTR Value 5Meg
TEXT -360 528 Left 2 ;.ac dec 1000 0.01 1k
TEXT -336 288 Left 2 ;Regulador
TEXT -80 384 Left 2 ;DAC AD5308
TEXT 232 208 Left 2 ;Rail to rail
TEXT 664 400 Left 2 ;Atenuador
TEXT -360 480 Left 2 ;.noise V(Vout) Salida_DAC dec 1000 0.01 1k
TEXT -362 646 Left 2 !.tran 9
RECTANGLE Normal -144 272 -336 112 2
RECTANGLE Normal 208 368 -80 96 2
RECTANGLE Normal 608 192 224 -112 2
RECTANGLE Normal 1104 384 656 64 2
