Version 4
SHEET 1 2028 856
WIRE 1200 -160 1200 -192
WIRE 992 -128 880 -128
WIRE 880 -80 880 -128
WIRE 896 -80 880 -80
WIRE 992 -64 992 -128
WIRE 992 -64 960 -64
WIRE 1200 -64 1200 -80
WIRE 1200 -64 992 -64
WIRE 416 -48 368 -48
WIRE 576 -48 496 -48
WIRE 816 -48 816 -64
WIRE 896 -48 816 -48
WIRE 816 -32 816 -48
WIRE 256 32 -240 32
WIRE 368 32 368 -48
WIRE 368 32 336 32
WIRE 816 48 656 48
WIRE 368 80 368 32
WIRE 416 80 368 80
WIRE 576 96 576 -48
WIRE 576 96 480 96
WIRE 656 96 656 48
WIRE 656 96 576 96
WIRE 416 112 0 112
WIRE -240 144 -240 32
WIRE 0 160 0 112
WIRE 0 288 0 240
WIRE 1312 416 1200 416
WIRE 1200 464 1200 416
WIRE 1216 464 1200 464
WIRE 1312 480 1312 416
WIRE 1312 480 1280 480
WIRE 1520 480 1312 480
WIRE 1088 496 1088 480
WIRE 1216 496 1088 496
WIRE 1088 512 1088 496
WIRE 1520 512 1520 480
WIRE 1088 608 1088 592
WIRE 1216 608 1088 608
WIRE 1312 624 1280 624
WIRE 1520 624 1520 592
WIRE 1520 624 1312 624
WIRE 1216 640 1200 640
WIRE 1248 672 1248 656
WIRE 1200 704 1200 640
WIRE 1312 704 1312 624
WIRE 1312 704 1200 704
FLAG 0 288 0
FLAG -240 224 0
FLAG -16 528 0
FLAG 128 448 0
FLAG -16 448 5V
FLAG 128 528 -5V
FLAG 448 64 5V
FLAG 448 128 -5V
FLAG 1088 688 0
FLAG 1248 512 -5V
FLAG 1248 448 5V
FLAG 800 512 5V
FLAG 800 672 -5V
FLAG 1248 592 -5V
FLAG 1248 672 5V
FLAG 816 -144 0
FLAG 928 -32 -5V
FLAG 928 -96 5V
FLAG 1200 -192 0
SYMBOL Misc\\signal 0 144 R0
WINDOW 123 24 132 Left 2
WINDOW 39 0 0 Left 0
SYMATTR Value2 AC 5
SYMATTR InstName Salida_DAC
SYMATTR Value PWL file=C:\Users\gonza\Downloads\asd.txt
SYMBOL voltage -240 128 R0
WINDOW 123 0 0 Left 0
WINDOW 39 0 0 Left 0
SYMATTR InstName Vref
SYMATTR Value 5
SYMBOL Opamps\\AD820 448 32 R0
SYMATTR InstName U1
SYMBOL res 240 48 R270
WINDOW 0 32 56 VTop 2
WINDOW 3 0 56 VBottom 2
SYMATTR InstName R2
SYMATTR Value 10k
SYMBOL res 512 -64 R90
WINDOW 0 0 56 VBottom 2
WINDOW 3 32 56 VTop 2
SYMATTR InstName R4
SYMATTR Value 10k
SYMBOL voltage -16 432 R0
WINDOW 123 0 0 Left 0
WINDOW 39 0 0 Left 0
SYMATTR InstName V1
SYMATTR Value 5
SYMBOL voltage 128 432 R0
WINDOW 123 0 0 Left 0
WINDOW 39 0 0 Left 0
SYMATTR InstName V4
SYMATTR Value 5
SYMBOL res 1072 384 R0
SYMATTR InstName R3
SYMATTR Value 500k
SYMBOL res 1072 496 R0
SYMATTR InstName R5
SYMATTR Value 10
SYMBOL Opamps\\AD820 1248 416 R0
SYMATTR InstName U2
SYMBOL BandPassFilter 800 592 R0
SYMATTR InstName X1
SYMBOL res 1504 496 R0
SYMATTR InstName R1
SYMATTR Value 5Meg
SYMBOL res 1072 592 R0
SYMATTR InstName R6
SYMATTR Value 500k
SYMBOL Opamps\\AD820 1248 688 M180
SYMATTR InstName U3
SYMBOL res 800 -48 R0
SYMATTR InstName R7
SYMATTR Value 1Meg
SYMBOL res 800 -160 R0
SYMATTR InstName R8
SYMATTR Value 10
SYMBOL Opamps\\AD820 928 -128 R0
SYMATTR InstName U4
SYMBOL res 1184 -176 R0
SYMATTR InstName R9
SYMATTR Value 5Meg
TEXT -376 -120 Left 2 ;.ac dec 1000 0.01 1k
TEXT -336 288 Left 2 ;Regulador
TEXT -80 384 Left 2 ;DAC AD5308
TEXT 232 208 Left 2 ;Rail to rail
TEXT 1104 376 Left 2 ;Atenuador Diferencial Alternativo
TEXT -376 -168 Left 2 ;.noise V(Vout) Salida_DAC dec 1000 0.01 1k
TEXT -376 0 Left 2 !.tran 9
TEXT 776 -336 Left 2 ;Atenuador
TEXT 576 456 Left 2 ;Filtro de 10Hz a 100Hz
RECTANGLE Normal -144 272 -336 112 2
RECTANGLE Normal 208 368 -80 96 2
RECTANGLE Normal 608 192 224 -112 2
RECTANGLE Normal 1488 720 1040 400 2
RECTANGLE Normal 1392 160 736 -320 2
