Version 4
SHEET 1 2028 856
WIRE 1056 -224 768 -224
WIRE 1056 -192 1056 -224
WIRE 1328 -192 1056 -192
WIRE 416 -48 368 -48
WIRE 576 -48 496 -48
WIRE 256 32 -240 32
WIRE 368 32 368 -48
WIRE 368 32 336 32
WIRE 1328 48 1328 -192
WIRE 1328 48 992 48
WIRE 368 80 368 32
WIRE 416 80 368 80
WIRE 576 96 576 -48
WIRE 576 96 480 96
WIRE 768 96 768 -224
WIRE 768 96 576 96
WIRE 1312 96 1072 96
WIRE 416 112 0 112
WIRE 992 128 992 48
WIRE -240 144 -240 32
WIRE 0 160 0 112
WIRE 1312 160 1312 96
WIRE 1472 160 1312 160
WIRE 1072 192 1072 96
WIRE 1120 192 1072 192
WIRE 1472 192 1472 160
WIRE 1568 192 1472 192
WIRE 1312 208 1312 160
WIRE 1312 208 1184 208
WIRE 1568 208 1568 192
WIRE 1600 208 1568 208
WIRE 992 224 992 208
WIRE 1120 224 992 224
WIRE 992 240 992 224
WIRE 0 288 0 240
WIRE 1600 304 1600 288
WIRE 992 352 992 320
WIRE 96 672 -80 672
WIRE -80 752 -80 672
FLAG 0 288 0
FLAG -240 224 0
FLAG 560 560 0
FLAG 704 480 0
FLAG 560 480 5V
FLAG 704 560 -5V
FLAG 448 64 5V
FLAG 448 128 -5V
FLAG 992 352 0
FLAG 1152 240 -5V
FLAG 1152 176 5V
FLAG 1600 304 0
FLAG 1936 -240 5V
FLAG 1936 -80 -5V
FLAG 1600 208 Vout
FLAG -80 832 0
SYMBOL Misc\\signal 0 144 R0
WINDOW 123 24 132 Left 2
WINDOW 39 0 0 Left 0
SYMATTR Value2 AC 5
SYMATTR InstName Salida_DAC
SYMATTR Value PWL file=C:\Users\gonza\Downloads\asd.txt
SYMBOL voltage -240 128 R0
WINDOW 123 0 0 Left 0
WINDOW 39 0 0 Left 0
SYMATTR InstName Vref
SYMATTR Value 5
SYMBOL Opamps\\AD820 448 32 R0
SYMATTR InstName U1
SYMBOL res 240 48 R270
WINDOW 0 32 56 VTop 2
WINDOW 3 0 56 VBottom 2
SYMATTR InstName R2
SYMATTR Value 10k
SYMBOL res 512 -64 R90
WINDOW 0 0 56 VBottom 2
WINDOW 3 32 56 VTop 2
SYMATTR InstName R4
SYMATTR Value 10k
SYMBOL voltage 560 464 R0
WINDOW 123 0 0 Left 0
WINDOW 39 0 0 Left 0
SYMATTR InstName V1
SYMATTR Value 5
SYMBOL voltage 704 464 R0
WINDOW 123 0 0 Left 0
WINDOW 39 0 0 Left 0
SYMATTR InstName V4
SYMATTR Value 5
SYMBOL res 976 112 R0
SYMATTR InstName R3
SYMATTR Value 1Meg
SYMBOL res 976 224 R0
SYMATTR InstName R5
SYMATTR Value 10
SYMBOL Opamps\\AD820 1152 144 R0
SYMATTR InstName U2
SYMBOL BandPassFilter 1936 -160 R0
SYMATTR InstName X1
SYMBOL res 1584 192 R0
SYMATTR InstName R1
SYMATTR Value 5Meg
SYMBOL Misc\\signal -80 736 R0
SYMATTR InstName V2
TEXT -376 -120 Left 2 ;.ac dec 1000 0.01 1k
TEXT -336 288 Left 2 ;Regulador
TEXT -80 384 Left 2 ;DAC AD5308
TEXT 232 208 Left 2 ;Rail to rail
TEXT 936 400 Left 2 ;Atenuador
TEXT -376 -168 Left 2 ;.noise V(Vout) Salida_DAC dec 1000 0.01 1k
TEXT -376 0 Left 2 !.tran 9
TEXT 1792 -312 Left 2 ;Filtro
RECTANGLE Normal -144 272 -336 112 2
RECTANGLE Normal 208 368 -80 96 2
RECTANGLE Normal 608 192 224 -112 2
RECTANGLE Normal 1376 384 928 64 2
