Version 4
SHEET 1 1844 680
WIRE 880 -16 192 -16
WIRE 1104 -16 880 -16
WIRE 64 64 -80 64
WIRE 288 64 144 64
WIRE 736 80 560 80
WIRE 1072 80 800 80
WIRE 192 160 192 -16
WIRE -160 176 -320 176
WIRE -80 176 -80 64
WIRE -80 176 -96 176
WIRE 160 176 -16 176
WIRE 880 176 880 -16
WIRE 288 192 288 64
WIRE 288 192 224 192
WIRE 480 192 288 192
WIRE 560 192 560 80
WIRE 592 192 560 192
WIRE 736 192 672 192
WIRE 848 192 736 192
WIRE -16 208 -16 176
WIRE 160 208 96 208
WIRE 1072 208 1072 80
WIRE 1072 208 912 208
WIRE 1232 208 1072 208
WIRE 736 224 736 192
WIRE 848 224 800 224
WIRE 96 320 96 208
WIRE 288 320 288 192
WIRE 288 320 96 320
WIRE 800 384 800 224
WIRE 1072 384 1072 208
WIRE 1072 384 800 384
WIRE 192 416 192 224
WIRE 880 416 880 240
WIRE 880 416 192 416
WIRE 1088 416 880 416
FLAG -320 176 Input
IOPIN -320 176 In
FLAG 1232 208 Output
IOPIN 1232 208 Out
FLAG 1088 416 +V
IOPIN 1088 416 BiDir
FLAG 1104 -16 -V
IOPIN 1104 -16 BiDir
FLAG 736 288 0
FLAG -16 288 0
SYMBOL res 576 176 R90
WINDOW 0 0 56 VBottom 2
WINDOW 3 32 56 VTop 2
SYMATTR InstName R3
SYMATTR Value 7.81k
SYMBOL res 688 176 R90
WINDOW 0 0 56 VBottom 2
WINDOW 3 32 56 VTop 2
SYMATTR InstName R4
SYMATTR Value 133k
SYMBOL cap 720 224 R0
SYMATTR InstName C3
SYMATTR Value 16n
SYMBOL cap 800 64 R90
WINDOW 0 0 32 VBottom 2
WINDOW 3 32 32 VTop 2
SYMATTR InstName C4
SYMATTR Value 160n
SYMBOL Opamps\\LT1112 880 272 M180
SYMATTR InstName U2
SYMBOL Opamps\\LT1112 192 256 M180
SYMATTR InstName U1
SYMBOL res -32 192 R0
SYMATTR InstName R1
SYMATTR Value 1.06Meg
SYMBOL cap -96 160 R90
WINDOW 0 0 32 VBottom 2
WINDOW 3 32 32 VTop 2
SYMATTR InstName C2
SYMATTR Value 2.2µ
SYMBOL cap -16 160 R90
WINDOW 0 0 32 VBottom 2
WINDOW 3 32 32 VTop 2
SYMATTR InstName C1
SYMATTR Value 2.2µ
SYMBOL res 160 48 R90
WINDOW 0 0 56 VBottom 2
WINDOW 3 32 56 VTop 2
SYMATTR InstName R2
SYMATTR Value 798k
