Version 4
SHEET 1 880 680
WIRE 176 176 0 176
WIRE 400 176 272 176
FLAG 400 256 0
FLAG 0 256 0
FLAG 368 -48 0
FLAG 496 32 0
FLAG 496 -48 V+
FLAG 224 96 V+
FLAG 368 32 V-
FLAG 224 256 V-
SYMBOL BandPassFilter 224 176 R0
SYMATTR InstName X1
SYMBOL voltage 0 160 R0
WINDOW 123 24 124 Left 2
WINDOW 39 0 0 Left 0
SYMATTR InstName V1
SYMATTR Value 1
SYMATTR Value2 AC 1
SYMBOL res 384 160 R0
SYMATTR InstName R1
SYMATTR Value 5Meg
SYMBOL voltage 368 -64 R0
WINDOW 123 0 0 Left 0
WINDOW 39 0 0 Left 0
SYMATTR InstName V2
SYMATTR Value 5
SYMBOL voltage 496 -64 R0
WINDOW 123 0 0 Left 0
WINDOW 39 0 0 Left 0
SYMATTR InstName V3
SYMATTR Value 5
TEXT -34 328 Left 2 !.ac dec 100 0.01 1000
